          11
 
   C         -1.59110755      0.14891061      0.00000000
   C         -0.26650086     -0.49203559      0.00000000
   C          0.89173185      0.11531628      0.75467234
   C          0.89173185      0.11531628     -0.75467234
   H         -2.11863352      0.33486004      0.92831672
   H         -2.11863352      0.33486004     -0.92831672
   H         -0.28087143     -1.58319793      0.00000000
   H          1.57611436     -0.54811493      1.26856495
   H          0.72002724      1.06110007      1.25376604
   H          1.57611436     -0.54811493     -1.26856495
   H          0.72002724      1.06110007     -1.25376604
