          10
 
   C         -1.21296476     -0.67990277     -0.30712171
   C         -0.29369748      0.35055894      0.22683176
   F         -0.47116440      0.44301207      1.61123079
   F         -0.67747412      1.58927650     -0.25976213
   C          1.17700346      0.14322428     -0.05043833
   H         -2.26018370     -0.43752110     -0.41879279
   H         -0.86993460     -1.69356472     -0.45418092
   H          1.35660577      0.13050468     -1.12575035
   H          1.50717463     -0.80315058      0.37871358
   H          1.74463519      0.95756269      0.39927009
