          10
 
   C         -1.60757119      0.54482164      0.00000000
   O         -0.44299229      1.24481546      0.00000000
   C          0.81002894      0.66562602      0.00000000
   O          1.75983924      1.39579936      0.00000000
   C          0.87959064     -0.83970386      0.00000000
   H         -1.61557486     -0.53221845      0.00000000
   H         -2.48911615      1.16195586      0.00000000
   H          0.38941729     -1.25642973      0.88281643
   H          0.38941729     -1.25642973     -0.88281643
   H          1.92696110     -1.12823659      0.00000000
