          15
 
   C          0.00615781      0.71925459      0.00000000
   C         -1.19602421      0.00414318      0.00000000
   C         -1.20274922     -1.38589412      0.00000000
   C         -0.00214357     -2.09218331      0.00000000
   C          1.20029949     -1.39451175      0.00000000
   C          1.20134023     -0.00151201      0.00000000
   C          0.00247516      2.22804659      0.00000000
   H         -2.13734499      0.54394935      0.00000000
   H         -2.14605834     -1.91973236      0.00000000
   H         -0.00594635     -3.17562858      0.00000000
   H          2.14101321     -1.93281068      0.00000000
   H          2.14529107      0.53273180      0.00000000
   H          1.01771369      2.62724752      0.00000000
   H         -0.51201198      2.62344989     -0.88028401
   H         -0.51201198      2.62344989      0.88028401
