           6
 
   C         -0.46481415      0.19511102      0.00000000
   S          1.37476060      0.25112421      0.00000000
   H          1.57790567     -1.08429440      0.00000000
   H         -0.79878424      1.23132127      0.00000000
   H         -0.84453394     -0.29663105     -0.89359022
   H         -0.84453394     -0.29663105      0.89359022
