           7
 
   C         -0.86530409      0.03812316      0.00000000
   N          0.60437398      0.02008313      0.00000000
   H         -1.34955648     -0.05207974     -0.95893304
   H          0.98643286      0.49209920      0.82809771
   H         -1.34955648     -0.05207974      0.95893304
   H          0.98717735     -0.93824523      0.00000000
   H          0.98643286      0.49209920     -0.82809771
