          10
 
   N          0.27661183      0.27245741      1.55708323
   C         -0.52042450     -0.06911223      0.39075215
   C          0.30387741      0.06882606     -0.86832804
   O          1.50707047      0.04325543     -0.91631557
   O         -0.47649905      0.17995858     -1.96848960
   H          1.22036743     -0.08392456      1.45617153
   H         -0.12822543     -0.10525741      2.40378322
   H          0.11282350      0.20987575     -2.73894433
   H         -0.90531325     -1.10287502      0.37415572
   H         -1.39028840      0.58679598      0.31013168
