           8
 
   C          0.00000000      0.00000000     -0.77060085
   N          0.00000000      0.00000000      0.74478833
   H         -0.47664433      0.82557220      1.11980089
   H         -0.47664433     -0.82557220      1.11980089
   H          0.95328867      0.00000000      1.11980089
   H         -1.03205456      0.00000000     -1.11119672
   H          0.51602728      0.89378547     -1.11119672
   H          0.51602728     -0.89378547     -1.11119672
