           6
 
   C         -0.82155922      0.19115386      0.00406872
   S          0.95048089      0.29579093      0.00496870
   H         -1.30957900      0.33694277      0.95781375
   H          1.24402954     -0.56084759     -1.01589853
   H         -1.30975336      0.32761010     -0.95092215
   H          1.24638116     -0.59065007      0.99996951
